22
Properties=species:S:1:pos:R:3 pbc="F F F"
N       -2.21160000      -0.30430000      -0.26400000
N        2.92750000      -0.45750000       0.15370000
C        0.61690000       0.27380000       0.27120000
C       -0.37950000       1.36200000      -0.14830000
C        0.13830000      -1.09490000      -0.22950000
C       -1.80390000       0.99730000       0.26930000
C       -1.30690000      -1.36260000       0.19060000
C        2.01930000       0.58620000      -0.24300000
H        0.64170000       0.24620000       1.37030000
H       -0.34530000       1.50240000      -1.23670000
H       -0.10040000       2.32040000       0.30520000
H        0.76530000      -1.90140000       0.16760000
H        0.21150000      -1.14110000      -1.32420000
H       -1.89000000       0.99940000       1.36290000
H       -2.49260000       1.76220000      -0.10580000
H       -1.63430000      -2.31410000      -0.24250000
H       -1.37090000      -1.46940000       1.28050000
H        2.36120000       1.54740000       0.15720000
H        2.01780000       0.67010000      -1.33570000
H       -3.15900000      -0.51430000       0.04940000
H        2.96420000      -0.52440000       1.16990000
H        3.87220000      -0.22710000      -0.15090000
