  108
 
Au     0.00000     0.00000     0.00000
Br    -8.42108     7.16332     2.15863
Br    -5.57044     9.13456     2.15863
Br    -3.75168     6.51618     0.89633
Br    -6.49816     4.47398     1.11623
Au    -6.06555     6.82847     1.55939
Au     1.74556     0.50441    -3.80875
Br    -0.62866     0.86446    -3.30551
Br     1.28014    -1.80703    -4.41517
Br     4.10437     0.13040    -4.23585
Br     2.20786     2.85355    -3.37277
Br     2.35552    -0.33486    -0.59924
Br     0.43338     2.35338     0.44272
Br    -2.31290     0.31215     0.66283
Br    -0.49434    -2.30719    -0.59968
Au    -9.07751     8.03164    -1.13941
Br    -6.70347     7.67184    -1.64360
Br    -9.54097     5.68169    -1.57537
Br   -11.43729     8.40580    -0.71208
Br    -8.61325    10.34226    -0.53297
Br    -0.03069     5.90853     0.30147
Br   -10.84764     2.38761    -1.02074
Br    -6.03486     0.91993     1.25791
Br     3.51569     6.14845    -3.92741
 O     1.56927     4.98876     2.98984
 H     1.17557     5.23106     2.25691
 H     2.39619     4.86641     2.80089
 O    -9.12106     1.29721     2.31779
 H    -9.20745     1.12542     3.16273
 H    -8.29562     1.17686     2.12123
 O    -7.63404     1.83982    -1.43163
 H    -7.24112     1.59741    -0.69752
 H    -8.46174     1.96205    -1.24151
 O     3.05647     5.53111    -0.75863
 H     3.14286     5.70290    -1.60357
 H     2.23103     5.65146    -0.56207
 N    -7.37121    -0.17315    -3.48395
 H    -7.19867     0.64528    -3.25964
 H    -7.76002     0.19134    -4.17946
 H    -8.03122    -0.63589    -3.19385
 C    -6.00570    -0.72292    -3.58067
 C    -5.65370    -1.36575    -4.73952
 H    -6.26516    -1.46411    -5.43107
 C    -5.12575    -0.56621    -2.54420
 H    -5.38739    -0.12843    -1.76712
 N    -2.14208    -2.24914    -3.91518
 H    -2.31462    -3.06756    -4.13949
 H    -1.75328    -2.61362    -3.21967
 H    -1.48207    -1.78639    -4.20529
 C    -3.50760    -1.69937    -3.81847
 C    -3.85959    -1.05653    -2.65962
 H    -3.24814    -0.95818    -1.96807
 C    -4.38755    -1.85607    -4.85493
 H    -4.12590    -2.29386    -5.63202
 N   -16.03160    -0.96990     2.72681
 H   -16.20414    -1.78833     2.50249
 H   -16.16338    -1.25792     3.54377
 H   -16.59784    -0.32705     2.72279
 C   -14.66696    -0.82112     2.18656
 C   -13.68570    -0.37411     3.03436
 H   -13.88403    -0.15682     3.91484
 C   -14.40376    -1.14551     0.88240
 H   -15.08475    -1.44506     0.32623
 N   -10.78648    -0.43232     0.71434
 H   -10.61394     0.38611     0.93865
 H   -10.65567    -0.14416    -0.10240
 H   -10.22120    -1.07503     0.71858
 C   -12.15111    -0.58110     1.25459
 C   -13.13238    -1.02811     0.40679
 H   -12.93405    -1.24541    -0.47369
 C   -12.41547    -0.25632     2.55802
 H   -11.73333     0.04284     3.11492
 N    -0.84480     4.26800    -2.45753
 H    -0.68744     5.10688    -2.31117
 H    -0.40794     4.14493    -1.70803
 H    -0.37796     3.76031    -2.96469
 C    -2.31977     4.26789    -2.48381
 C    -2.97573     3.38371    -1.66650
 H    -2.50119     2.79423    -1.12879
 C    -2.99377     5.14581    -3.28887
 H    -2.52770     5.73498    -3.83626
 N    -6.48735     4.26709    -2.49083
 H    -6.64471     3.42821    -2.63720
 H    -6.92421     4.39016    -3.24034
 H    -6.95399     4.77574    -1.98346
 C    -5.01238     4.26720    -2.46456
 C    -4.35641     5.15139    -3.28187
 H    -4.83095     5.74086    -3.81958
 C    -4.33837     3.38929    -1.65950
 H    -4.80444     2.80012    -1.11211
 N    -9.90261     4.00792     1.70746
 H   -10.05997     3.16904     1.56110
 H    -9.81986     4.05467     0.83673
 H    -9.14397     4.33660     1.92897
 C   -11.15779     4.40902     2.37069
 C   -11.83509     5.48903     1.86444
 H   -11.49984     5.95957     1.13781
 C   -11.62810     3.69918     3.44273
 H   -11.15038     2.97139     3.76993
 N   -14.73432     5.54724     4.18445
 H   -14.57696     6.38612     4.33082
 H   -14.81804     5.50063     5.05541
 H   -15.49373     5.21966     3.96339
 C   -13.47914     5.14614     3.52122
 C   -12.80184     4.06613     4.02748
 H   -13.13709     3.59559     4.75411
 C   -13.00998     5.85637     2.44847
 H   -13.48655     6.58377     2.12199
