18
Properties=species:S:1:pos:R:3 pbc="F F F"
N      -16.03160000      -0.96990000       2.72681000
H      -16.20414000      -1.78833000       2.50249000
H      -16.16338000      -1.25792000       3.54377000
H      -16.59784000      -0.32705000       2.72279000
C      -14.66696000      -0.82112000       2.18656000
C      -13.68570000      -0.37411000       3.03436000
H      -13.88403000      -0.15682000       3.91484000
C      -14.40376000      -1.14551000       0.88240000
H      -15.08475000      -1.44506000       0.32623000
N      -10.78648000      -0.43232000       0.71434000
H      -10.61394000       0.38611000       0.93865000
H      -10.65567000      -0.14416000      -0.10240000
H      -10.22120000      -1.07503000       0.71858000
C      -12.15111000      -0.58110000       1.25459000
C      -13.13238000      -1.02811000       0.40679000
H      -12.93405000      -1.24541000      -0.47369000
C      -12.41547000      -0.25632000       2.55802000
H      -11.73333000       0.04284000       3.11492000
